/*--------------------------------*- C++ -*----------------------------------*\
  =========                 |
  \\      /  F ield         | OpenFOAM: The Open Source CFD Toolbox
   \\    /   O peration     | Website:  https://openfoam.org
    \\  /    A nd           | Version:  7
     \\/     M anipulation  |
\*---------------------------------------------------------------------------*/
FoamFile
{
    version     2.0;
    format      ascii;
    class       polyBoundaryMesh;
    location    "constant/polyMesh";
    object      boundary;
}
// * * * * * * * * * * * * * * * * * * * * * * * * * * * * * * * * * * * * * //

8
(
    inlet
    {
        type            patch;
        nFaces          0;
        startFace       254;
    }
    outlet
    {
        type            patch;
        nFaces          0;
        startFace       254;
    }
    cylinder
    {
        type            wall;
        inGroups        List<word> 1(wall);
        nFaces          0;
        startFace       254;
    }
    top
    {
        type            symmetryPlane;
        inGroups        List<word> 1(symmetryPlane);
        nFaces          2;
        startFace       254;
    }
    bottom
    {
        type            symmetryPlane;
        inGroups        List<word> 1(symmetryPlane);
        nFaces          1;
        startFace       256;
    }
    defaultFaces
    {
        type            empty;
        inGroups        List<word> 1(empty);
        nFaces          366;
        startFace       257;
    }
    procBoundary5to4
    {
        type            processor;
        inGroups        List<word> 1(processor);
        nFaces          106;
        startFace       623;
        matchTolerance  0.0001;
        transform       unknown;
        myProcNo        5;
        neighbProcNo    4;
    }
    procBoundary5to6
    {
        type            processor;
        inGroups        List<word> 1(processor);
        nFaces          115;
        startFace       729;
        matchTolerance  0.0001;
        transform       unknown;
        myProcNo        5;
        neighbProcNo    6;
    }
)

// ************************************************************************* //
