/*--------------------------------*- C++ -*----------------------------------*\
  =========                 |
  \\      /  F ield         | OpenFOAM: The Open Source CFD Toolbox
   \\    /   O peration     | Website:  https://openfoam.org
    \\  /    A nd           | Version:  7
     \\/     M anipulation  |
\*---------------------------------------------------------------------------*/
FoamFile
{
    version     2.0;
    format      ascii;
    class       polyBoundaryMesh;
    location    "constant/polyMesh";
    object      boundary;
}
// * * * * * * * * * * * * * * * * * * * * * * * * * * * * * * * * * * * * * //

11
(
    inlet
    {
        type            patch;
        nFaces          0;
        startFace       25;
    }
    outlet
    {
        type            patch;
        nFaces          0;
        startFace       25;
    }
    cylinder
    {
        type            wall;
        inGroups        List<word> 1(wall);
        nFaces          0;
        startFace       25;
    }
    top
    {
        type            symmetryPlane;
        inGroups        List<word> 1(symmetryPlane);
        nFaces          0;
        startFace       25;
    }
    bottom
    {
        type            symmetryPlane;
        inGroups        List<word> 1(symmetryPlane);
        nFaces          0;
        startFace       25;
    }
    defaultFaces
    {
        type            empty;
        inGroups        List<word> 1(empty);
        nFaces          72;
        startFace       25;
    }
    procBoundary14to12
    {
        type            processor;
        inGroups        List<word> 1(processor);
        nFaces          15;
        startFace       97;
        matchTolerance  0.0001;
        transform       unknown;
        myProcNo        14;
        neighbProcNo    12;
    }
    procBoundary14to13
    {
        type            processor;
        inGroups        List<word> 1(processor);
        nFaces          29;
        startFace       112;
        matchTolerance  0.0001;
        transform       unknown;
        myProcNo        14;
        neighbProcNo    13;
    }
    procBoundary14to15
    {
        type            processor;
        inGroups        List<word> 1(processor);
        nFaces          33;
        startFace       141;
        matchTolerance  0.0001;
        transform       unknown;
        myProcNo        14;
        neighbProcNo    15;
    }
    procBoundary14to16
    {
        type            processor;
        inGroups        List<word> 1(processor);
        nFaces          15;
        startFace       174;
        matchTolerance  0.0001;
        transform       unknown;
        myProcNo        14;
        neighbProcNo    16;
    }
    procBoundary14to17
    {
        type            processor;
        inGroups        List<word> 1(processor);
        nFaces          2;
        startFace       189;
        matchTolerance  0.0001;
        transform       unknown;
        myProcNo        14;
        neighbProcNo    17;
    }
)

// ************************************************************************* //
