/*--------------------------------*- C++ -*----------------------------------*\
  =========                 |
  \\      /  F ield         | OpenFOAM: The Open Source CFD Toolbox
   \\    /   O peration     | Website:  https://openfoam.org
    \\  /    A nd           | Version:  7
     \\/     M anipulation  |
\*---------------------------------------------------------------------------*/
FoamFile
{
    version     2.0;
    format      ascii;
    class       polyBoundaryMesh;
    location    "constant/polyMesh";
    object      boundary;
}
// * * * * * * * * * * * * * * * * * * * * * * * * * * * * * * * * * * * * * //

10
(
    inlet
    {
        type            patch;
        nFaces          0;
        startFace       22;
    }
    outlet
    {
        type            patch;
        nFaces          0;
        startFace       22;
    }
    cylinder
    {
        type            wall;
        inGroups        List<word> 1(wall);
        nFaces          8;
        startFace       22;
    }
    top
    {
        type            symmetryPlane;
        inGroups        List<word> 1(symmetryPlane);
        nFaces          0;
        startFace       30;
    }
    bottom
    {
        type            symmetryPlane;
        inGroups        List<word> 1(symmetryPlane);
        nFaces          0;
        startFace       30;
    }
    defaultFaces
    {
        type            empty;
        inGroups        List<word> 1(empty);
        nFaces          72;
        startFace       30;
    }
    procBoundary16to14
    {
        type            processor;
        inGroups        List<word> 1(processor);
        nFaces          15;
        startFace       102;
        matchTolerance  0.0001;
        transform       unknown;
        myProcNo        16;
        neighbProcNo    14;
    }
    procBoundary16to15
    {
        type            processor;
        inGroups        List<word> 1(processor);
        nFaces          32;
        startFace       117;
        matchTolerance  0.0001;
        transform       unknown;
        myProcNo        16;
        neighbProcNo    15;
    }
    procBoundary16to17
    {
        type            processor;
        inGroups        List<word> 1(processor);
        nFaces          33;
        startFace       149;
        matchTolerance  0.0001;
        transform       unknown;
        myProcNo        16;
        neighbProcNo    17;
    }
    procBoundary16to18
    {
        type            processor;
        inGroups        List<word> 1(processor);
        nFaces          12;
        startFace       182;
        matchTolerance  0.0001;
        transform       unknown;
        myProcNo        16;
        neighbProcNo    18;
    }
)

// ************************************************************************* //
