/*--------------------------------*- C++ -*----------------------------------*\
  =========                 |
  \\      /  F ield         | OpenFOAM: The Open Source CFD Toolbox
   \\    /   O peration     | Website:  https://openfoam.org
    \\  /    A nd           | Version:  7
     \\/     M anipulation  |
\*---------------------------------------------------------------------------*/
FoamFile
{
    version     2.0;
    format      ascii;
    class       polyBoundaryMesh;
    location    "constant/polyMesh";
    object      boundary;
}
// * * * * * * * * * * * * * * * * * * * * * * * * * * * * * * * * * * * * * //

10
(
    inlet
    {
        type            patch;
        nFaces          0;
        startFace       34;
    }
    outlet
    {
        type            patch;
        nFaces          0;
        startFace       34;
    }
    cylinder
    {
        type            wall;
        inGroups        List<word> 1(wall);
        nFaces          0;
        startFace       34;
    }
    top
    {
        type            symmetryPlane;
        inGroups        List<word> 1(symmetryPlane);
        nFaces          1;
        startFace       34;
    }
    bottom
    {
        type            symmetryPlane;
        inGroups        List<word> 1(symmetryPlane);
        nFaces          1;
        startFace       35;
    }
    defaultFaces
    {
        type            empty;
        inGroups        List<word> 1(empty);
        nFaces          72;
        startFace       36;
    }
    procBoundary52to50
    {
        type            processor;
        inGroups        List<word> 1(processor);
        nFaces          4;
        startFace       108;
        matchTolerance  0.0001;
        transform       unknown;
        myProcNo        52;
        neighbProcNo    50;
    }
    procBoundary52to51
    {
        type            processor;
        inGroups        List<word> 1(processor);
        nFaces          33;
        startFace       112;
        matchTolerance  0.0001;
        transform       unknown;
        myProcNo        52;
        neighbProcNo    51;
    }
    procBoundary52to53
    {
        type            processor;
        inGroups        List<word> 1(processor);
        nFaces          33;
        startFace       145;
        matchTolerance  0.0001;
        transform       unknown;
        myProcNo        52;
        neighbProcNo    53;
    }
    procBoundary52to54
    {
        type            processor;
        inGroups        List<word> 1(processor);
        nFaces          4;
        startFace       178;
        matchTolerance  0.0001;
        transform       unknown;
        myProcNo        52;
        neighbProcNo    54;
    }
)

// ************************************************************************* //
