/*--------------------------------*- C++ -*----------------------------------*\
  =========                 |
  \\      /  F ield         | OpenFOAM: The Open Source CFD Toolbox
   \\    /   O peration     | Website:  https://openfoam.org
    \\  /    A nd           | Version:  7
     \\/     M anipulation  |
\*---------------------------------------------------------------------------*/
FoamFile
{
    version     2.0;
    format      ascii;
    class       polyBoundaryMesh;
    location    "constant/polyMesh";
    object      boundary;
}
// * * * * * * * * * * * * * * * * * * * * * * * * * * * * * * * * * * * * * //

8
(
    inlet
    {
        type            patch;
        nFaces          0;
        startFace       1666;
    }
    outlet
    {
        type            patch;
        nFaces          0;
        startFace       1666;
    }
    cylinder
    {
        type            wall;
        inGroups        List<word> 1(wall);
        nFaces          0;
        startFace       1666;
    }
    top
    {
        type            symmetryPlane;
        inGroups        List<word> 1(symmetryPlane);
        nFaces          5;
        startFace       1666;
    }
    bottom
    {
        type            symmetryPlane;
        inGroups        List<word> 1(symmetryPlane);
        nFaces          5;
        startFace       1671;
    }
    defaultFaces
    {
        type            empty;
        inGroups        List<word> 1(empty);
        nFaces          1856;
        startFace       1676;
    }
    procBoundary50to49
    {
        type            processor;
        inGroups        List<word> 1(processor);
        nFaces          185;
        startFace       3532;
        matchTolerance  0.0001;
        transform       unknown;
        myProcNo        50;
        neighbProcNo    49;
    }
    procBoundary50to51
    {
        type            processor;
        inGroups        List<word> 1(processor);
        nFaces          185;
        startFace       3717;
        matchTolerance  0.0001;
        transform       unknown;
        myProcNo        50;
        neighbProcNo    51;
    }
)

// ************************************************************************* //
