/*--------------------------------*- C++ -*----------------------------------*\
  =========                 |
  \\      /  F ield         | OpenFOAM: The Open Source CFD Toolbox
   \\    /   O peration     | Website:  https://openfoam.org
    \\  /    A nd           | Version:  7
     \\/     M anipulation  |
\*---------------------------------------------------------------------------*/
FoamFile
{
    version     2.0;
    format      ascii;
    class       polyBoundaryMesh;
    location    "constant/polyMesh";
    object      boundary;
}
// * * * * * * * * * * * * * * * * * * * * * * * * * * * * * * * * * * * * * //

9
(
    inlet
    {
        type            patch;
        nFaces          0;
        startFace       275;
    }
    outlet
    {
        type            patch;
        nFaces          0;
        startFace       275;
    }
    cylinder
    {
        type            wall;
        inGroups        List<word> 1(wall);
        nFaces          0;
        startFace       275;
    }
    top
    {
        type            symmetryPlane;
        inGroups        List<word> 1(symmetryPlane);
        nFaces          1;
        startFace       275;
    }
    bottom
    {
        type            symmetryPlane;
        inGroups        List<word> 1(symmetryPlane);
        nFaces          2;
        startFace       276;
    }
    defaultFaces
    {
        type            empty;
        inGroups        List<word> 1(empty);
        nFaces          366;
        startFace       278;
    }
    procBoundary32to30
    {
        type            processor;
        inGroups        List<word> 1(processor);
        nFaces          12;
        startFace       644;
        matchTolerance  0.0001;
        transform       unknown;
        myProcNo        32;
        neighbProcNo    30;
    }
    procBoundary32to31
    {
        type            processor;
        inGroups        List<word> 1(processor);
        nFaces          81;
        startFace       656;
        matchTolerance  0.0001;
        transform       unknown;
        myProcNo        32;
        neighbProcNo    31;
    }
    procBoundary32to33
    {
        type            processor;
        inGroups        List<word> 1(processor);
        nFaces          86;
        startFace       737;
        matchTolerance  0.0001;
        transform       unknown;
        myProcNo        32;
        neighbProcNo    33;
    }
)

// ************************************************************************* //
