/*--------------------------------*- C++ -*----------------------------------*\
  =========                 |
  \\      /  F ield         | OpenFOAM: The Open Source CFD Toolbox
   \\    /   O peration     | Website:  https://openfoam.org
    \\  /    A nd           | Version:  7
     \\/     M anipulation  |
\*---------------------------------------------------------------------------*/
FoamFile
{
    version     2.0;
    format      ascii;
    class       polyBoundaryMesh;
    location    "constant/polyMesh";
    object      boundary;
}
// * * * * * * * * * * * * * * * * * * * * * * * * * * * * * * * * * * * * * //

10
(
    inlet
    {
        type            patch;
        nFaces          0;
        startFace       28;
    }
    outlet
    {
        type            patch;
        nFaces          0;
        startFace       28;
    }
    cylinder
    {
        type            wall;
        inGroups        List<word> 1(wall);
        nFaces          6;
        startFace       28;
    }
    top
    {
        type            symmetryPlane;
        inGroups        List<word> 1(symmetryPlane);
        nFaces          0;
        startFace       34;
    }
    bottom
    {
        type            symmetryPlane;
        inGroups        List<word> 1(symmetryPlane);
        nFaces          0;
        startFace       34;
    }
    defaultFaces
    {
        type            empty;
        inGroups        List<word> 1(empty);
        nFaces          72;
        startFace       34;
    }
    procBoundary18to16
    {
        type            processor;
        inGroups        List<word> 1(processor);
        nFaces          12;
        startFace       106;
        matchTolerance  0.0001;
        transform       unknown;
        myProcNo        18;
        neighbProcNo    16;
    }
    procBoundary18to17
    {
        type            processor;
        inGroups        List<word> 1(processor);
        nFaces          30;
        startFace       118;
        matchTolerance  0.0001;
        transform       unknown;
        myProcNo        18;
        neighbProcNo    17;
    }
    procBoundary18to19
    {
        type            processor;
        inGroups        List<word> 1(processor);
        nFaces          28;
        startFace       148;
        matchTolerance  0.0001;
        transform       unknown;
        myProcNo        18;
        neighbProcNo    19;
    }
    procBoundary18to20
    {
        type            processor;
        inGroups        List<word> 1(processor);
        nFaces          12;
        startFace       176;
        matchTolerance  0.0001;
        transform       unknown;
        myProcNo        18;
        neighbProcNo    20;
    }
)

// ************************************************************************* //
