/*--------------------------------*- C++ -*----------------------------------*\
  =========                 |
  \\      /  F ield         | OpenFOAM: The Open Source CFD Toolbox
   \\    /   O peration     | Website:  https://openfoam.org
    \\  /    A nd           | Version:  7
     \\/     M anipulation  |
\*---------------------------------------------------------------------------*/
FoamFile
{
    version     2.0;
    format      ascii;
    class       polyBoundaryMesh;
    location    "constant/polyMesh";
    object      boundary;
}
// * * * * * * * * * * * * * * * * * * * * * * * * * * * * * * * * * * * * * //

8
(
    inlet
    {
        type            patch;
        nFaces          0;
        startFace       281;
    }
    outlet
    {
        type            patch;
        nFaces          0;
        startFace       281;
    }
    cylinder
    {
        type            wall;
        inGroups        List<word> 1(wall);
        nFaces          0;
        startFace       281;
    }
    top
    {
        type            symmetryPlane;
        inGroups        List<word> 1(symmetryPlane);
        nFaces          1;
        startFace       281;
    }
    bottom
    {
        type            symmetryPlane;
        inGroups        List<word> 1(symmetryPlane);
        nFaces          0;
        startFace       282;
    }
    defaultFaces
    {
        type            empty;
        inGroups        List<word> 1(empty);
        nFaces          366;
        startFace       282;
    }
    procBoundary31to30
    {
        type            processor;
        inGroups        List<word> 1(processor);
        nFaces          88;
        startFace       648;
        matchTolerance  0.0001;
        transform       unknown;
        myProcNo        31;
        neighbProcNo    30;
    }
    procBoundary31to32
    {
        type            processor;
        inGroups        List<word> 1(processor);
        nFaces          81;
        startFace       736;
        matchTolerance  0.0001;
        transform       unknown;
        myProcNo        31;
        neighbProcNo    32;
    }
)

// ************************************************************************* //
