/*--------------------------------*- C++ -*----------------------------------*\
  =========                 |
  \\      /  F ield         | OpenFOAM: The Open Source CFD Toolbox
   \\    /   O peration     | Website:  https://openfoam.org
    \\  /    A nd           | Version:  7
     \\/     M anipulation  |
\*---------------------------------------------------------------------------*/
FoamFile
{
    version     2.0;
    format      ascii;
    class       polyBoundaryMesh;
    location    "constant/polyMesh";
    object      boundary;
}
// * * * * * * * * * * * * * * * * * * * * * * * * * * * * * * * * * * * * * //

8
(
    inlet
    {
        type            patch;
        nFaces          0;
        startFace       607;
    }
    outlet
    {
        type            patch;
        nFaces          0;
        startFace       607;
    }
    cylinder
    {
        type            wall;
        inGroups        List<word> 1(wall);
        nFaces          16;
        startFace       607;
    }
    top
    {
        type            symmetryPlane;
        inGroups        List<word> 1(symmetryPlane);
        nFaces          3;
        startFace       623;
    }
    bottom
    {
        type            symmetryPlane;
        inGroups        List<word> 1(symmetryPlane);
        nFaces          2;
        startFace       626;
    }
    defaultFaces
    {
        type            empty;
        inGroups        List<word> 1(empty);
        nFaces          784;
        startFace       628;
    }
    procBoundary8to7
    {
        type            processor;
        inGroups        List<word> 1(processor);
        nFaces          172;
        startFace       1412;
        matchTolerance  0.0001;
        transform       unknown;
        myProcNo        8;
        neighbProcNo    7;
    }
    procBoundary8to9
    {
        type            processor;
        inGroups        List<word> 1(processor);
        nFaces          161;
        startFace       1584;
        matchTolerance  0.0001;
        transform       unknown;
        myProcNo        8;
        neighbProcNo    9;
    }
)

// ************************************************************************* //
