/*--------------------------------*- C++ -*----------------------------------*\
  =========                 |
  \\      /  F ield         | OpenFOAM: The Open Source CFD Toolbox
   \\    /   O peration     | Website:  https://openfoam.org
    \\  /    A nd           | Version:  7
     \\/     M anipulation  |
\*---------------------------------------------------------------------------*/
FoamFile
{
    version     2.0;
    format      ascii;
    class       polyBoundaryMesh;
    location    "constant/polyMesh";
    object      boundary;
}
// * * * * * * * * * * * * * * * * * * * * * * * * * * * * * * * * * * * * * //

8
(
    inlet
    {
        type            patch;
        nFaces          0;
        startFace       239;
    }
    outlet
    {
        type            patch;
        nFaces          0;
        startFace       239;
    }
    cylinder
    {
        type            wall;
        inGroups        List<word> 1(wall);
        nFaces          12;
        startFace       239;
    }
    top
    {
        type            symmetryPlane;
        inGroups        List<word> 1(symmetryPlane);
        nFaces          1;
        startFace       251;
    }
    bottom
    {
        type            symmetryPlane;
        inGroups        List<word> 1(symmetryPlane);
        nFaces          2;
        startFace       252;
    }
    defaultFaces
    {
        type            empty;
        inGroups        List<word> 1(empty);
        nFaces          366;
        startFace       254;
    }
    procBoundary11to10
    {
        type            processor;
        inGroups        List<word> 1(processor);
        nFaces          123;
        startFace       620;
        matchTolerance  0.0001;
        transform       unknown;
        myProcNo        11;
        neighbProcNo    10;
    }
    procBoundary11to12
    {
        type            processor;
        inGroups        List<word> 1(processor);
        nFaces          116;
        startFace       743;
        matchTolerance  0.0001;
        transform       unknown;
        myProcNo        11;
        neighbProcNo    12;
    }
)

// ************************************************************************* //
