/*--------------------------------*- C++ -*----------------------------------*\
  =========                 |
  \\      /  F ield         | OpenFOAM: The Open Source CFD Toolbox
   \\    /   O peration     | Website:  https://openfoam.org
    \\  /    A nd           | Version:  7
     \\/     M anipulation  |
\*---------------------------------------------------------------------------*/
FoamFile
{
    version     2.0;
    format      ascii;
    class       polyBoundaryMesh;
    location    "constant/polyMesh";
    object      boundary;
}
// * * * * * * * * * * * * * * * * * * * * * * * * * * * * * * * * * * * * * //

10
(
    inlet
    {
        type            patch;
        nFaces          0;
        startFace       29;
    }
    outlet
    {
        type            patch;
        nFaces          0;
        startFace       29;
    }
    cylinder
    {
        type            wall;
        inGroups        List<word> 1(wall);
        nFaces          2;
        startFace       29;
    }
    top
    {
        type            symmetryPlane;
        inGroups        List<word> 1(symmetryPlane);
        nFaces          1;
        startFace       31;
    }
    bottom
    {
        type            symmetryPlane;
        inGroups        List<word> 1(symmetryPlane);
        nFaces          0;
        startFace       32;
    }
    defaultFaces
    {
        type            empty;
        inGroups        List<word> 1(empty);
        nFaces          72;
        startFace       32;
    }
    procBoundary20to18
    {
        type            processor;
        inGroups        List<word> 1(processor);
        nFaces          12;
        startFace       104;
        matchTolerance  0.0001;
        transform       unknown;
        myProcNo        20;
        neighbProcNo    18;
    }
    procBoundary20to19
    {
        type            processor;
        inGroups        List<word> 1(processor);
        nFaces          29;
        startFace       116;
        matchTolerance  0.0001;
        transform       unknown;
        myProcNo        20;
        neighbProcNo    19;
    }
    procBoundary20to21
    {
        type            processor;
        inGroups        List<word> 1(processor);
        nFaces          24;
        startFace       145;
        matchTolerance  0.0001;
        transform       unknown;
        myProcNo        20;
        neighbProcNo    21;
    }
    procBoundary20to22
    {
        type            processor;
        inGroups        List<word> 1(processor);
        nFaces          18;
        startFace       169;
        matchTolerance  0.0001;
        transform       unknown;
        myProcNo        20;
        neighbProcNo    22;
    }
)

// ************************************************************************* //
