/*--------------------------------*- C++ -*----------------------------------*\
  =========                 |
  \\      /  F ield         | OpenFOAM: The Open Source CFD Toolbox
   \\    /   O peration     | Website:  https://openfoam.org
    \\  /    A nd           | Version:  7
     \\/     M anipulation  |
\*---------------------------------------------------------------------------*/
FoamFile
{
    version     2.0;
    format      ascii;
    class       polyBoundaryMesh;
    location    "constant/polyMesh";
    object      boundary;
}
// * * * * * * * * * * * * * * * * * * * * * * * * * * * * * * * * * * * * * //

10
(
    inlet
    {
        type            patch;
        nFaces          0;
        startFace       22;
    }
    outlet
    {
        type            patch;
        nFaces          0;
        startFace       22;
    }
    cylinder
    {
        type            wall;
        inGroups        List<word> 1(wall);
        nFaces          0;
        startFace       22;
    }
    top
    {
        type            symmetryPlane;
        inGroups        List<word> 1(symmetryPlane);
        nFaces          1;
        startFace       22;
    }
    bottom
    {
        type            symmetryPlane;
        inGroups        List<word> 1(symmetryPlane);
        nFaces          1;
        startFace       23;
    }
    defaultFaces
    {
        type            empty;
        inGroups        List<word> 1(empty);
        nFaces          72;
        startFace       24;
    }
    procBoundary32to30
    {
        type            processor;
        inGroups        List<word> 1(processor);
        nFaces          14;
        startFace       96;
        matchTolerance  0.0001;
        transform       unknown;
        myProcNo        32;
        neighbProcNo    30;
    }
    procBoundary32to31
    {
        type            processor;
        inGroups        List<word> 1(processor);
        nFaces          34;
        startFace       110;
        matchTolerance  0.0001;
        transform       unknown;
        myProcNo        32;
        neighbProcNo    31;
    }
    procBoundary32to33
    {
        type            processor;
        inGroups        List<word> 1(processor);
        nFaces          35;
        startFace       144;
        matchTolerance  0.0001;
        transform       unknown;
        myProcNo        32;
        neighbProcNo    33;
    }
    procBoundary32to34
    {
        type            processor;
        inGroups        List<word> 1(processor);
        nFaces          15;
        startFace       179;
        matchTolerance  0.0001;
        transform       unknown;
        myProcNo        32;
        neighbProcNo    34;
    }
)

// ************************************************************************* //
