/*--------------------------------*- C++ -*----------------------------------*\
  =========                 |
  \\      /  F ield         | OpenFOAM: The Open Source CFD Toolbox
   \\    /   O peration     | Website:  https://openfoam.org
    \\  /    A nd           | Version:  7
     \\/     M anipulation  |
\*---------------------------------------------------------------------------*/
FoamFile
{
    version     2.0;
    format      ascii;
    class       polyBoundaryMesh;
    location    "constant/polyMesh";
    object      boundary;
}
// * * * * * * * * * * * * * * * * * * * * * * * * * * * * * * * * * * * * * //

11
(
    inlet
    {
        type            patch;
        nFaces          0;
        startFace       20;
    }
    outlet
    {
        type            patch;
        nFaces          0;
        startFace       20;
    }
    cylinder
    {
        type            wall;
        inGroups        List<word> 1(wall);
        nFaces          4;
        startFace       20;
    }
    top
    {
        type            symmetryPlane;
        inGroups        List<word> 1(symmetryPlane);
        nFaces          1;
        startFace       24;
    }
    bottom
    {
        type            symmetryPlane;
        inGroups        List<word> 1(symmetryPlane);
        nFaces          1;
        startFace       25;
    }
    defaultFaces
    {
        type            empty;
        inGroups        List<word> 1(empty);
        nFaces          72;
        startFace       26;
    }
    procBoundary17to14
    {
        type            processor;
        inGroups        List<word> 1(processor);
        nFaces          2;
        startFace       98;
        matchTolerance  0.0001;
        transform       unknown;
        myProcNo        17;
        neighbProcNo    14;
    }
    procBoundary17to15
    {
        type            processor;
        inGroups        List<word> 1(processor);
        nFaces          17;
        startFace       100;
        matchTolerance  0.0001;
        transform       unknown;
        myProcNo        17;
        neighbProcNo    15;
    }
    procBoundary17to16
    {
        type            processor;
        inGroups        List<word> 1(processor);
        nFaces          33;
        startFace       117;
        matchTolerance  0.0001;
        transform       unknown;
        myProcNo        17;
        neighbProcNo    16;
    }
    procBoundary17to18
    {
        type            processor;
        inGroups        List<word> 1(processor);
        nFaces          30;
        startFace       150;
        matchTolerance  0.0001;
        transform       unknown;
        myProcNo        17;
        neighbProcNo    18;
    }
    procBoundary17to19
    {
        type            processor;
        inGroups        List<word> 1(processor);
        nFaces          16;
        startFace       180;
        matchTolerance  0.0001;
        transform       unknown;
        myProcNo        17;
        neighbProcNo    19;
    }
)

// ************************************************************************* //
