/*--------------------------------*- C++ -*----------------------------------*\
  =========                 |
  \\      /  F ield         | OpenFOAM: The Open Source CFD Toolbox
   \\    /   O peration     | Website:  https://openfoam.org
    \\  /    A nd           | Version:  7
     \\/     M anipulation  |
\*---------------------------------------------------------------------------*/
FoamFile
{
    version     2.0;
    format      ascii;
    class       polyBoundaryMesh;
    location    "constant/polyMesh";
    object      boundary;
}
// * * * * * * * * * * * * * * * * * * * * * * * * * * * * * * * * * * * * * //

8
(
    inlet
    {
        type            patch;
        nFaces          0;
        startFace       249;
    }
    outlet
    {
        type            patch;
        nFaces          0;
        startFace       249;
    }
    cylinder
    {
        type            wall;
        inGroups        List<word> 1(wall);
        nFaces          0;
        startFace       249;
    }
    top
    {
        type            symmetryPlane;
        inGroups        List<word> 1(symmetryPlane);
        nFaces          2;
        startFace       249;
    }
    bottom
    {
        type            symmetryPlane;
        inGroups        List<word> 1(symmetryPlane);
        nFaces          2;
        startFace       251;
    }
    defaultFaces
    {
        type            empty;
        inGroups        List<word> 1(empty);
        nFaces          366;
        startFace       253;
    }
    procBoundary29to28
    {
        type            processor;
        inGroups        List<word> 1(processor);
        nFaces          120;
        startFace       619;
        matchTolerance  0.0001;
        transform       unknown;
        myProcNo        29;
        neighbProcNo    28;
    }
    procBoundary29to30
    {
        type            processor;
        inGroups        List<word> 1(processor);
        nFaces          110;
        startFace       739;
        matchTolerance  0.0001;
        transform       unknown;
        myProcNo        29;
        neighbProcNo    30;
    }
)

// ************************************************************************* //
