/*--------------------------------*- C++ -*----------------------------------*\
  =========                 |
  \\      /  F ield         | OpenFOAM: The Open Source CFD Toolbox
   \\    /   O peration     | Website:  https://openfoam.org
    \\  /    A nd           | Version:  7
     \\/     M anipulation  |
\*---------------------------------------------------------------------------*/
FoamFile
{
    version     2.0;
    format      ascii;
    class       polyBoundaryMesh;
    location    "constant/polyMesh";
    object      boundary;
}
// * * * * * * * * * * * * * * * * * * * * * * * * * * * * * * * * * * * * * //

8
(
    inlet
    {
        type            patch;
        nFaces          0;
        startFace       266;
    }
    outlet
    {
        type            patch;
        nFaces          0;
        startFace       266;
    }
    cylinder
    {
        type            wall;
        inGroups        List<word> 1(wall);
        nFaces          8;
        startFace       266;
    }
    top
    {
        type            symmetryPlane;
        inGroups        List<word> 1(symmetryPlane);
        nFaces          2;
        startFace       274;
    }
    bottom
    {
        type            symmetryPlane;
        inGroups        List<word> 1(symmetryPlane);
        nFaces          2;
        startFace       276;
    }
    defaultFaces
    {
        type            empty;
        inGroups        List<word> 1(empty);
        nFaces          366;
        startFace       278;
    }
    procBoundary15to14
    {
        type            processor;
        inGroups        List<word> 1(processor);
        nFaces          98;
        startFace       644;
        matchTolerance  0.0001;
        transform       unknown;
        myProcNo        15;
        neighbProcNo    14;
    }
    procBoundary15to16
    {
        type            processor;
        inGroups        List<word> 1(processor);
        nFaces          90;
        startFace       742;
        matchTolerance  0.0001;
        transform       unknown;
        myProcNo        15;
        neighbProcNo    16;
    }
)

// ************************************************************************* //
