/*--------------------------------*- C++ -*----------------------------------*\
  =========                 |
  \\      /  F ield         | OpenFOAM: The Open Source CFD Toolbox
   \\    /   O peration     | Website:  https://openfoam.org
    \\  /    A nd           | Version:  7
     \\/     M anipulation  |
\*---------------------------------------------------------------------------*/
FoamFile
{
    version     2.0;
    format      ascii;
    class       polyBoundaryMesh;
    location    "constant/polyMesh";
    object      boundary;
}
// * * * * * * * * * * * * * * * * * * * * * * * * * * * * * * * * * * * * * //

8
(
    inlet
    {
        type            patch;
        nFaces          0;
        startFace       274;
    }
    outlet
    {
        type            patch;
        nFaces          0;
        startFace       274;
    }
    cylinder
    {
        type            wall;
        inGroups        List<word> 1(wall);
        nFaces          8;
        startFace       274;
    }
    top
    {
        type            symmetryPlane;
        inGroups        List<word> 1(symmetryPlane);
        nFaces          2;
        startFace       282;
    }
    bottom
    {
        type            symmetryPlane;
        inGroups        List<word> 1(symmetryPlane);
        nFaces          1;
        startFace       284;
    }
    defaultFaces
    {
        type            empty;
        inGroups        List<word> 1(empty);
        nFaces          366;
        startFace       285;
    }
    procBoundary17to16
    {
        type            processor;
        inGroups        List<word> 1(processor);
        nFaces          88;
        startFace       651;
        matchTolerance  0.0001;
        transform       unknown;
        myProcNo        17;
        neighbProcNo    16;
    }
    procBoundary17to18
    {
        type            processor;
        inGroups        List<word> 1(processor);
        nFaces          85;
        startFace       739;
        matchTolerance  0.0001;
        transform       unknown;
        myProcNo        17;
        neighbProcNo    18;
    }
)

// ************************************************************************* //
