/*--------------------------------*- C++ -*----------------------------------*\
  =========                 |
  \\      /  F ield         | OpenFOAM: The Open Source CFD Toolbox
   \\    /   O peration     | Website:  https://openfoam.org
    \\  /    A nd           | Version:  7
     \\/     M anipulation  |
\*---------------------------------------------------------------------------*/
FoamFile
{
    version     2.0;
    format      ascii;
    class       polyBoundaryMesh;
    location    "constant/polyMesh";
    object      boundary;
}
// * * * * * * * * * * * * * * * * * * * * * * * * * * * * * * * * * * * * * //

10
(
    inlet
    {
        type            patch;
        nFaces          0;
        startFace       28;
    }
    outlet
    {
        type            patch;
        nFaces          0;
        startFace       28;
    }
    cylinder
    {
        type            wall;
        inGroups        List<word> 1(wall);
        nFaces          2;
        startFace       28;
    }
    top
    {
        type            symmetryPlane;
        inGroups        List<word> 1(symmetryPlane);
        nFaces          1;
        startFace       30;
    }
    bottom
    {
        type            symmetryPlane;
        inGroups        List<word> 1(symmetryPlane);
        nFaces          1;
        startFace       31;
    }
    defaultFaces
    {
        type            empty;
        inGroups        List<word> 1(empty);
        nFaces          72;
        startFace       32;
    }
    procBoundary25to23
    {
        type            processor;
        inGroups        List<word> 1(processor);
        nFaces          16;
        startFace       104;
        matchTolerance  0.0001;
        transform       unknown;
        myProcNo        25;
        neighbProcNo    23;
    }
    procBoundary25to24
    {
        type            processor;
        inGroups        List<word> 1(processor);
        nFaces          26;
        startFace       120;
        matchTolerance  0.0001;
        transform       unknown;
        myProcNo        25;
        neighbProcNo    24;
    }
    procBoundary25to26
    {
        type            processor;
        inGroups        List<word> 1(processor);
        nFaces          24;
        startFace       146;
        matchTolerance  0.0001;
        transform       unknown;
        myProcNo        25;
        neighbProcNo    26;
    }
    procBoundary25to27
    {
        type            processor;
        inGroups        List<word> 1(processor);
        nFaces          18;
        startFace       170;
        matchTolerance  0.0001;
        transform       unknown;
        myProcNo        25;
        neighbProcNo    27;
    }
)

// ************************************************************************* //
