/*--------------------------------*- C++ -*----------------------------------*\
  =========                 |
  \\      /  F ield         | OpenFOAM: The Open Source CFD Toolbox
   \\    /   O peration     | Website:  https://openfoam.org
    \\  /    A nd           | Version:  7
     \\/     M anipulation  |
\*---------------------------------------------------------------------------*/
FoamFile
{
    version     2.0;
    format      ascii;
    class       polyBoundaryMesh;
    location    "constant/polyMesh";
    object      boundary;
}
// * * * * * * * * * * * * * * * * * * * * * * * * * * * * * * * * * * * * * //

10
(
    inlet
    {
        type            patch;
        nFaces          0;
        startFace       28;
    }
    outlet
    {
        type            patch;
        nFaces          0;
        startFace       28;
    }
    cylinder
    {
        type            wall;
        inGroups        List<word> 1(wall);
        nFaces          0;
        startFace       28;
    }
    top
    {
        type            symmetryPlane;
        inGroups        List<word> 1(symmetryPlane);
        nFaces          1;
        startFace       28;
    }
    bottom
    {
        type            symmetryPlane;
        inGroups        List<word> 1(symmetryPlane);
        nFaces          0;
        startFace       29;
    }
    defaultFaces
    {
        type            empty;
        inGroups        List<word> 1(empty);
        nFaces          72;
        startFace       29;
    }
    procBoundary33to31
    {
        type            processor;
        inGroups        List<word> 1(processor);
        nFaces          12;
        startFace       101;
        matchTolerance  0.0001;
        transform       unknown;
        myProcNo        33;
        neighbProcNo    31;
    }
    procBoundary33to32
    {
        type            processor;
        inGroups        List<word> 1(processor);
        nFaces          35;
        startFace       113;
        matchTolerance  0.0001;
        transform       unknown;
        myProcNo        33;
        neighbProcNo    32;
    }
    procBoundary33to34
    {
        type            processor;
        inGroups        List<word> 1(processor);
        nFaces          32;
        startFace       148;
        matchTolerance  0.0001;
        transform       unknown;
        myProcNo        33;
        neighbProcNo    34;
    }
    procBoundary33to35
    {
        type            processor;
        inGroups        List<word> 1(processor);
        nFaces          8;
        startFace       180;
        matchTolerance  0.0001;
        transform       unknown;
        myProcNo        33;
        neighbProcNo    35;
    }
)

// ************************************************************************* //
