/*--------------------------------*- C++ -*----------------------------------*\
  =========                 |
  \\      /  F ield         | OpenFOAM: The Open Source CFD Toolbox
   \\    /   O peration     | Website:  https://openfoam.org
    \\  /    A nd           | Version:  7
     \\/     M anipulation  |
\*---------------------------------------------------------------------------*/
FoamFile
{
    version     2.0;
    format      ascii;
    class       polyBoundaryMesh;
    location    "constant/polyMesh";
    object      boundary;
}
// * * * * * * * * * * * * * * * * * * * * * * * * * * * * * * * * * * * * * //

10
(
    inlet
    {
        type            patch;
        nFaces          0;
        startFace       30;
    }
    outlet
    {
        type            patch;
        nFaces          0;
        startFace       30;
    }
    cylinder
    {
        type            wall;
        inGroups        List<word> 1(wall);
        nFaces          0;
        startFace       30;
    }
    top
    {
        type            symmetryPlane;
        inGroups        List<word> 1(symmetryPlane);
        nFaces          1;
        startFace       30;
    }
    bottom
    {
        type            symmetryPlane;
        inGroups        List<word> 1(symmetryPlane);
        nFaces          1;
        startFace       31;
    }
    defaultFaces
    {
        type            empty;
        inGroups        List<word> 1(empty);
        nFaces          72;
        startFace       32;
    }
    procBoundary41to39
    {
        type            processor;
        inGroups        List<word> 1(processor);
        nFaces          4;
        startFace       104;
        matchTolerance  0.0001;
        transform       unknown;
        myProcNo        41;
        neighbProcNo    39;
    }
    procBoundary41to40
    {
        type            processor;
        inGroups        List<word> 1(processor);
        nFaces          37;
        startFace       108;
        matchTolerance  0.0001;
        transform       unknown;
        myProcNo        41;
        neighbProcNo    40;
    }
    procBoundary41to42
    {
        type            processor;
        inGroups        List<word> 1(processor);
        nFaces          35;
        startFace       145;
        matchTolerance  0.0001;
        transform       unknown;
        myProcNo        41;
        neighbProcNo    42;
    }
    procBoundary41to43
    {
        type            processor;
        inGroups        List<word> 1(processor);
        nFaces          6;
        startFace       180;
        matchTolerance  0.0001;
        transform       unknown;
        myProcNo        41;
        neighbProcNo    43;
    }
)

// ************************************************************************* //
